Questionable use of curly braces in "b1 0 vsense i={time}"
    Error: undefined symbol in: "[time]"
Circuit: * D:\Projects\MotorControl\Current_Amp.asc

Direct Newton iteration failed to find .op point.  (Use ".option noopiter" to skip.)
Starting Gmin stepping
Gmin = 10
Gmin = 1.07374
Gmin = 0.115292
Gmin = 0.0123794
Gmin = 0.00132923
Gmin = 0.000142725
Gmin = 1.5325e-005
Gmin = 1.6455e-006
Gmin = 1.76685e-007
Gmin = 1.89714e-008
Gmin = 2.03704e-009
Gmin = 2.18725e-010
Gmin = 2.34854e-011
Gmin = 2.52173e-012
Gmin = 2.70769e-013
Gmin = 0
Gmin stepping succeeded in finding the operating point.


Date: Sat Sep 07 17:52:56 2013
Total elapsed time: 0.060 seconds.

tnom = 27
temp = 27
method = modified trap
totiter = 2812
traniter = 2441
tranpoints = 1129
accept = 1106
rejected = 23
matrix size = 10
fillins = 0
solver = Normal
Matrix Compiler1: 436 bytes object code size  0.4/0.2/[0.1]
Matrix Compiler2: 814 bytes object code size  0.3/0.4/[0.3]


